Version 4.1
SHEET 1 1152 680
WIRE 944 -352 896 -352
WIRE 1088 -352 1040 -352
WIRE 896 -320 896 -352
WIRE 1040 -320 1040 -352
WIRE 304 -208 144 -208
WIRE 368 -208 304 -208
WIRE 496 -208 448 -208
WIRE 800 -208 496 -208
WIRE 896 -176 896 -240
WIRE 1040 -176 1040 -240
WIRE 656 -144 608 -144
WIRE 752 -144 736 -144
WIRE 800 -144 800 -208
WIRE 800 -144 752 -144
WIRE 848 -144 800 -144
WIRE 896 -144 848 -144
WIRE 1024 -144 976 -144
WIRE 144 -128 144 -208
WIRE 704 -96 656 -96
WIRE 928 -96 912 -96
WIRE 704 -64 704 -96
WIRE 928 -64 928 -96
WIRE 752 -48 752 -144
WIRE 752 -48 736 -48
WIRE 848 -48 848 -144
WIRE 896 -48 848 -48
WIRE 304 -32 304 -208
WIRE 496 -32 496 -208
WIRE 608 -32 608 -144
WIRE 672 -32 608 -32
WIRE 1024 -32 1024 -144
WIRE 1024 -32 960 -32
WIRE 752 -16 736 -16
WIRE 896 -16 848 -16
WIRE 144 16 144 -48
WIRE 704 32 704 0
WIRE 704 32 656 32
WIRE 928 32 928 0
WIRE 928 32 912 32
WIRE 144 48 144 16
WIRE 608 80 608 -32
WIRE 640 80 608 80
WIRE 752 80 752 -16
WIRE 752 80 720 80
WIRE 848 80 848 -16
WIRE 880 80 848 80
WIRE 1024 80 1024 -32
WIRE 1024 80 960 80
WIRE 752 112 752 80
WIRE 848 112 848 80
WIRE 752 208 752 192
WIRE 800 208 752 208
WIRE 848 208 848 192
WIRE 848 208 800 208
WIRE 144 240 144 128
WIRE 304 240 304 32
WIRE 304 240 144 240
WIRE 400 240 304 240
WIRE 496 240 496 32
WIRE 496 240 400 240
WIRE 800 240 800 208
WIRE 800 240 496 240
WIRE 400 288 400 240
FLAG 400 288 0
FLAG 304 -208 V5
FLAG 496 -208 V6
FLAG 896 -176 0
FLAG 1040 -176 0
FLAG 944 -352 vcc+
FLAG 1088 -352 vcc-
FLAG 656 32 vcc+
FLAG 656 -96 vcc-
FLAG 912 -96 vcc-
FLAG 912 32 vcc+
FLAG 608 -32 V3
FLAG 1024 -32 V4
FLAG 144 16 VR1
SYMBOL cap 288 -32 R0
SYMATTR InstName C1
SYMATTR Value 100nF
SYMBOL cap 480 -32 R0
SYMATTR InstName C2
SYMATTR Value 10nF
SYMBOL res 128 32 R0
SYMATTR InstName R1
SYMATTR Value 10
SYMBOL res 464 -224 R90
WINDOW 0 0 56 VBottom 2
WINDOW 3 32 56 VTop 2
SYMATTR InstName R2
SYMATTR Value {R}
SYMBOL ind 160 -32 R180
WINDOW 0 36 80 Left 2
WINDOW 3 36 40 Left 2
SYMATTR InstName L1
SYMATTR Value 20mH
SYMBOL res 736 96 R0
SYMATTR InstName R3
SYMATTR Value 2.2k
SYMBOL res 832 96 R0
SYMATTR InstName R4
SYMATTR Value 2.2k
SYMBOL res 752 -160 R90
WINDOW 0 0 56 VBottom 2
WINDOW 3 32 56 VTop 2
SYMATTR InstName R5
SYMATTR Value 110
SYMBOL res 992 -160 R90
WINDOW 0 0 56 VBottom 2
WINDOW 3 32 56 VTop 2
SYMATTR InstName R6
SYMATTR Value 11k
SYMBOL res 736 64 R90
WINDOW 0 0 56 VBottom 2
WINDOW 3 32 56 VTop 2
SYMATTR InstName R7
SYMATTR Value 110
SYMBOL res 976 64 R90
WINDOW 0 0 56 VBottom 2
WINDOW 3 32 56 VTop 2
SYMATTR InstName R8
SYMATTR Value 11k
SYMBOL OpAmps\\LT1113 704 32 R180
SYMATTR InstName U1
SYMBOL OpAmps\\LT1113 928 32 M180
SYMATTR InstName U2
SYMBOL voltage 896 -336 R0
WINDOW 123 0 0 Left 0
WINDOW 39 0 0 Left 0
SYMATTR InstName V1
SYMATTR Value 12
SYMBOL voltage 1040 -336 R0
SYMATTR InstName V2
SYMATTR Value -12
TEXT 24 344 Left 2 !.step param R 1890.5 1900 0.5\n.tran 0 1.1 1 0.1m
